Version 4
SHEET 1 880 680
WIRE 544 -32 -48 -32
WIRE 112 32 64 32
WIRE 224 32 176 32
WIRE 416 48 384 48
WIRE 544 48 544 -32
WIRE 544 48 496 48
WIRE -240 96 -240 64
WIRE -192 96 -240 96
WIRE -240 112 -240 96
WIRE -48 144 -48 -32
WIRE 64 144 64 32
WIRE 64 144 32 144
WIRE 112 144 64 144
WIRE 224 160 224 32
WIRE 224 160 176 160
WIRE 272 160 224 160
WIRE 384 160 384 48
WIRE 384 160 352 160
WIRE 416 160 384 160
WIRE 512 176 480 176
WIRE 544 208 544 48
WIRE 544 208 480 208
WIRE 672 208 544 208
WIRE -240 224 -240 192
WIRE -192 224 -240 224
WIRE -240 256 -240 224
WIRE 224 336 224 160
FLAG 144 192 0
FLAG 512 176 0
FLAG -240 -16 0
FLAG -240 336 0
FLAG 144 128 Vdd
FLAG 480 144 Vdd
FLAG -192 224 Vdd
FLAG -192 96 Vcom
FLAG 112 176 Vcom
FLAG 416 192 Vcom
FLAG 544 288 Vdd
FLAG 224 336 Vramp_class-d
IOPIN 224 336 Out
SYMBOL AD8648 144 96 R0
WINDOW 3 -58 135 Left 2
SYMATTR InstName U1
SYMBOL res 48 128 R90
WINDOW 0 0 56 VBottom 2
WINDOW 3 32 56 VTop 2
SYMATTR InstName R1
SYMATTR Value 25k
SYMBOL res 368 144 R90
WINDOW 0 0 56 VBottom 2
WINDOW 3 32 56 VTop 2
SYMATTR InstName R2
SYMATTR Value 10k
SYMBOL res 512 32 R90
WINDOW 0 0 56 VBottom 2
WINDOW 3 32 56 VTop 2
SYMATTR InstName R3
SYMATTR Value 50k
SYMBOL cap 176 16 R90
WINDOW 0 0 32 VBottom 2
WINDOW 3 32 32 VTop 2
SYMATTR InstName C1
SYMATTR Value 10n
SYMBOL res 528 192 R0
SYMATTR InstName R4
SYMATTR Value 1k
SYMBOL voltage -240 240 R0
WINDOW 123 0 0 Left 0
WINDOW 39 0 0 Left 0
SYMATTR InstName V1
SYMATTR Value 5
SYMBOL res -256 96 R0
SYMATTR InstName R5
SYMATTR Value 1k
SYMBOL res -256 -32 R0
SYMATTR InstName R6
SYMATTR Value 1k
SYMBOL LM339 448 176 R0
SYMATTR InstName U2
TEXT -272 384 Left 2 !.tran 0 4m 3m
