Version 4
SHEET 1 3104 1876
WIRE 464 -1104 -128 -1104
WIRE 1312 -1056 1280 -1056
WIRE 1472 -1056 1392 -1056
WIRE 32 -1040 -16 -1040
WIRE 144 -1040 96 -1040
WIRE 336 -1024 304 -1024
WIRE 464 -1024 464 -1104
WIRE 464 -1024 416 -1024
WIRE 1936 -976 1888 -976
WIRE 1936 -944 1888 -944
WIRE 2224 -944 1936 -944
WIRE -128 -928 -128 -1104
WIRE -16 -928 -16 -1040
WIRE -16 -928 -48 -928
WIRE 32 -928 -16 -928
WIRE 144 -912 144 -1040
WIRE 144 -912 96 -912
WIRE 192 -912 144 -912
WIRE 304 -912 304 -1024
WIRE 304 -912 272 -912
WIRE 336 -912 304 -912
WIRE 1072 -912 912 -912
WIRE 1152 -912 1136 -912
WIRE 1168 -912 1152 -912
WIRE 1280 -912 1280 -1056
WIRE 1280 -912 1248 -912
WIRE 1312 -912 1280 -912
WIRE 432 -896 400 -896
WIRE 1472 -896 1472 -1056
WIRE 1472 -896 1376 -896
WIRE 1488 -896 1472 -896
WIRE 464 -864 464 -1024
WIRE 464 -864 400 -864
WIRE 144 -736 144 -912
WIRE 1936 -736 1888 -736
WIRE 1152 -720 1152 -912
WIRE 1488 -720 1152 -720
WIRE 1936 -704 1888 -704
WIRE 2224 -704 1936 -704
WIRE 1856 -256 1824 -256
WIRE 2032 -256 1984 -256
WIRE 1824 -224 1824 -256
WIRE 1824 -224 1808 -224
WIRE 1696 -208 1648 -208
WIRE 2336 -208 2096 -208
WIRE 1824 -192 1808 -192
WIRE 2512 -176 2384 -176
WIRE 1824 -160 1824 -192
WIRE 1888 -160 1824 -160
WIRE 2032 -160 1952 -160
WIRE -48 -144 -112 -144
WIRE 176 -144 16 -144
WIRE 2384 -64 2384 -176
WIRE 48 -48 16 -48
WIRE 176 -48 176 -144
WIRE 176 -48 128 -48
WIRE 2336 -48 2336 -208
WIRE 2512 -48 2512 -96
WIRE -640 0 -736 0
WIRE -640 80 -736 80
WIRE -240 80 -336 80
WIRE -112 80 -112 -144
WIRE -112 80 -160 80
WIRE -80 80 -112 80
WIRE 16 80 16 -48
WIRE 16 80 -16 80
WIRE 64 80 16 80
WIRE 2512 80 2512 32
WIRE 176 96 176 -48
WIRE 176 96 128 96
WIRE 256 96 176 96
WIRE -112 144 -112 80
WIRE 688 144 656 144
WIRE 816 144 768 144
WIRE 1856 160 1824 160
WIRE 1968 160 1920 160
WIRE 2384 160 2384 16
WIRE 2512 160 2384 160
WIRE 1824 192 1824 160
WIRE 1824 192 1808 192
WIRE 1696 208 1648 208
WIRE 2336 208 2336 0
WIRE 2336 208 2096 208
WIRE 1824 224 1808 224
WIRE 496 240 448 240
WIRE 608 240 576 240
WIRE 1824 256 1824 224
WIRE 1888 256 1824 256
WIRE 2032 256 1952 256
WIRE -336 272 -336 80
WIRE -336 272 -352 272
WIRE 608 272 608 240
WIRE 656 272 656 144
WIRE 656 272 608 272
WIRE 688 272 656 272
WIRE 816 288 816 144
WIRE 816 288 752 288
WIRE 912 288 816 288
WIRE -48 304 -112 304
WIRE 176 304 16 304
WIRE 496 320 448 320
WIRE 608 320 608 272
WIRE 608 320 576 320
WIRE 48 400 16 400
WIRE 176 400 176 304
WIRE 176 400 128 400
WIRE -336 528 -336 272
WIRE -240 528 -336 528
WIRE -112 528 -112 304
WIRE -112 528 -160 528
WIRE -80 528 -112 528
WIRE 16 528 16 400
WIRE 16 528 -16 528
WIRE 64 528 16 528
WIRE 176 544 176 400
WIRE 176 544 128 544
WIRE 256 544 176 544
WIRE -112 592 -112 528
FLAG 96 128 0
FLAG -112 224 0
FLAG -640 160 0
FLAG -640 -80 0
FLAG 96 576 0
FLAG -112 672 0
FLAG 256 96 Vout_BPF1
IOPIN 256 96 Out
FLAG 256 544 Vout_BPF2
IOPIN 256 544 Out
FLAG -352 272 Vin_audio
IOPIN -352 272 In
FLAG -736 0 Vcom
FLAG 64 112 Vcom
FLAG 64 560 Vcom
FLAG -736 80 Vdd
FLAG 96 512 Vdd
FLAG 96 64 Vdd
FLAG -704 464 0
FLAG -704 384 Vin_audio
IOPIN -704 384 Out
FLAG 448 240 Vout_BPF1
IOPIN 448 240 In
FLAG 448 320 Vout_BPF2
IOPIN 448 320 In
FLAG 720 256 Vdd
FLAG 720 320 0
FLAG 688 304 Vcom
FLAG 64 -880 0
FLAG 432 -896 0
FLAG 64 -944 Vdd
FLAG 400 -928 Vdd
FLAG 32 -896 Vcom
FLAG 336 -880 Vcom
FLAG 464 -784 Vdd
FLAG 144 -736 Vramp_class-d
IOPIN 144 -736 Out
FLAG 1312 -880 Vcom
FLAG 1344 -864 0
FLAG 1344 -928 Vdd
FLAG 1488 -896 Vin_a-
FLAG 1488 -720 Vin_a+
FLAG 912 -912 Ain
IOPIN 912 -912 In
FLAG 1824 -992 Vin_a+
FLAG 1824 -752 Vin_a-
FLAG 1888 -1008 Vdd
FLAG 1888 -768 Vdd
FLAG 1936 -976 0
FLAG 1936 -736 0
FLAG 1936 -864 Vdd
FLAG 1936 -624 Vdd
FLAG 2224 -944 V_pwm-p
IOPIN 2224 -944 Out
FLAG 2224 -704 V_pwm-n
IOPIN 2224 -704 Out
FLAG 1824 -960 Vramp_class-d
IOPIN 1824 -960 In
FLAG 1824 -720 Vramp_class-d
IOPIN 1824 -720 In
FLAG 2096 -304 Vdd
FLAG 2096 112 Vdd
FLAG 2096 -112 0
FLAG 2096 304 0
FLAG 1824 -320 0
FLAG 1824 -96 0
FLAG 1824 96 0
FLAG 1824 320 0
FLAG 1648 -208 V_pwm-p
IOPIN 1648 -208 In
FLAG 1648 208 V_pwm-n
IOPIN 1648 208 In
FLAG 912 288 Ain
IOPIN 912 288 Out
SYMBOL res -144 64 R90
WINDOW 0 0 56 VBottom 2
WINDOW 3 32 56 VTop 2
SYMATTR InstName R1
SYMATTR Value {R1a}
SYMBOL res -128 128 R0
SYMATTR InstName R2
SYMATTR Value {R3a}
SYMBOL cap -80 64 M90
WINDOW 0 0 32 VBottom 2
WINDOW 3 32 32 VTop 2
SYMATTR InstName C1
SYMATTR Value {Ca}
SYMBOL cap -48 -160 M90
WINDOW 0 0 32 VBottom 2
WINDOW 3 32 32 VTop 2
SYMATTR InstName C2
SYMATTR Value {Ca}
SYMBOL res 144 -64 R90
WINDOW 0 0 56 VBottom 2
WINDOW 3 32 56 VTop 2
SYMATTR InstName R3
SYMATTR Value {R2a}
SYMBOL OpAmps\\UniversalOpAmp2 96 96 R0
SYMATTR InstName U1
SYMBOL voltage -640 64 R0
WINDOW 123 0 0 Left 0
WINDOW 39 0 0 Left 0
SYMATTR InstName V1
SYMATTR Value 5
SYMBOL res -656 -16 R0
SYMATTR InstName R4
SYMATTR Value 5k
SYMBOL res -656 -96 R0
SYMATTR InstName R5
SYMATTR Value 5k
SYMBOL res -144 512 R90
WINDOW 0 0 56 VBottom 2
WINDOW 3 32 56 VTop 2
SYMATTR InstName R6
SYMATTR Value {R1b}
SYMBOL res -128 576 R0
SYMATTR InstName R7
SYMATTR Value {R3b}
SYMBOL cap -80 512 M90
WINDOW 0 0 32 VBottom 2
WINDOW 3 32 32 VTop 2
SYMATTR InstName C3
SYMATTR Value {Cb}
SYMBOL cap -48 288 M90
WINDOW 0 0 32 VBottom 2
WINDOW 3 32 32 VTop 2
SYMATTR InstName C4
SYMATTR Value {Cb}
SYMBOL res 144 384 R90
WINDOW 0 0 56 VBottom 2
WINDOW 3 32 56 VTop 2
SYMATTR InstName R8
SYMATTR Value {R2b}
SYMBOL OpAmps\\UniversalOpAmp2 96 544 R0
SYMATTR InstName U2
SYMBOL voltage -704 368 R0
WINDOW 123 24 124 Left 2
WINDOW 39 0 0 Left 0
SYMATTR Value2 AC 1
SYMATTR InstName V2
SYMATTR Value SINE(2.5 1 520)
SYMBOL OpAmps\\UniversalOpAmp2 720 288 R0
SYMATTR InstName U3
SYMBOL res 784 128 R90
WINDOW 0 0 56 VBottom 2
WINDOW 3 32 56 VTop 2
SYMATTR InstName R9
SYMATTR Value {R}
SYMBOL res 592 224 R90
WINDOW 0 0 56 VBottom 2
WINDOW 3 32 56 VTop 2
SYMATTR InstName R10
SYMATTR Value {R}
SYMBOL res 592 304 R90
WINDOW 0 0 56 VBottom 2
WINDOW 3 32 56 VTop 2
SYMATTR InstName R11
SYMATTR Value {R}
SYMBOL OpAmps\\AD8648 64 -976 R0
WINDOW 3 -58 135 Left 2
SYMATTR InstName U4
SYMBOL LM339 368 -896 R0
SYMATTR InstName U5
SYMBOL res -32 -944 R90
WINDOW 0 0 56 VBottom 2
WINDOW 3 32 56 VTop 2
SYMATTR InstName R12
SYMATTR Value 27.05k
SYMBOL res 288 -928 R90
WINDOW 0 0 56 VBottom 2
WINDOW 3 32 56 VTop 2
SYMATTR InstName R13
SYMATTR Value 9.81k
SYMBOL res 432 -1040 R90
WINDOW 0 0 56 VBottom 2
WINDOW 3 32 56 VTop 2
SYMATTR InstName R14
SYMATTR Value 53.4k
SYMBOL cap 96 -1056 R90
WINDOW 0 0 32 VBottom 2
WINDOW 3 32 32 VTop 2
SYMATTR InstName C5
SYMATTR Value 10n
SYMBOL res 448 -880 R0
SYMATTR InstName R15
SYMATTR Value 1k
SYMBOL cap 1136 -928 R90
WINDOW 0 0 32 VBottom 2
WINDOW 3 32 32 VTop 2
SYMATTR InstName C6
SYMATTR Value 4.7µ
SYMBOL res 1264 -928 R90
WINDOW 0 0 56 VBottom 2
WINDOW 3 32 56 VTop 2
SYMATTR InstName R16
SYMATTR Value 100k
SYMBOL OpAmps\\AD8648 1344 -960 R0
WINDOW 3 -58 135 Left 2
SYMATTR InstName U6
SYMBOL res 1408 -1072 R90
WINDOW 0 0 56 VBottom 2
WINDOW 3 32 56 VTop 2
SYMATTR InstName R17
SYMATTR Value 100k
SYMBOL LM339 1856 -976 R0
SYMATTR InstName U7
SYMBOL LM339 1856 -736 R0
SYMATTR InstName U8
SYMBOL res 1920 -960 R0
SYMATTR InstName R18
SYMATTR Value 1k
SYMBOL res 1920 -720 R0
SYMATTR InstName R19
SYMATTR Value 1k
SYMBOL SR_Latch 1744 -208 M180
SYMATTR InstName X2
SYMBOL SR_Latch 1744 208 M180
SYMATTR InstName X3
SYMBOL Digital\\inv 1856 -320 R0
WINDOW 123 8 60 Left 2
SYMATTR Value2 VHigh=5
SYMATTR InstName A1
SYMBOL Digital\\inv 1920 -320 R0
WINDOW 123 8 60 Left 2
SYMATTR Value2 VHigh=5
SYMATTR InstName A2
SYMBOL Digital\\inv 1888 -224 R0
WINDOW 123 8 60 Left 2
SYMATTR Value2 VHigh=5
SYMATTR InstName A3
SYMBOL Digital\\inv 1856 96 R0
WINDOW 123 8 60 Left 2
SYMATTR Value2 VHigh=5
SYMATTR InstName A4
SYMBOL Digital\\inv 1968 96 R0
WINDOW 123 8 60 Left 2
SYMATTR Value2 VHigh=5
SYMATTR InstName A5
SYMBOL Digital\\inv 1888 192 R0
WINDOW 123 8 60 Left 2
SYMATTR Value2 VHigh=5
SYMATTR InstName A6
SYMBOL pnp 2032 -208 M180
SYMATTR InstName Q1
SYMATTR Value 2N2907
SYMBOL pnp 2032 208 M180
SYMATTR InstName Q2
SYMATTR Value 2N2907
SYMBOL npn 2032 -208 R0
SYMATTR InstName Q3
SYMATTR Value 2N2222
SYMBOL npn 2032 208 R0
SYMATTR InstName Q4
SYMATTR Value 2N2222
SYMBOL res 2496 -192 R0
SYMATTR InstName R20
SYMATTR Value 16
SYMBOL res 2496 64 R0
SYMATTR InstName R21
SYMATTR Value 16
SYMBOL ind 2496 -64 R0
SYMATTR InstName L1
SYMATTR Value 1000µ
SYMBOL cap 1808 -320 R0
SYMATTR InstName C7
SYMATTR Value 10n
SYMBOL cap 1808 -160 R0
SYMATTR InstName C8
SYMATTR Value 100n
SYMBOL cap 1808 96 R0
SYMATTR InstName C9
SYMATTR Value 10n
SYMBOL cap 1808 256 R0
SYMATTR InstName C10
SYMATTR Value 100n
SYMBOL e 2384 -80 R0
SYMATTR InstName E1
SYMATTR Value 1
TEXT -600 680 Left 2 !.tran 200ms
TEXT -440 744 Left 2 !.param R1a=100k R2a=200k R3a=500 Ca=100n R1b=25k R2b=50k R3b=132 Cb=100n R=1k
TEXT -696 -248 Left 2 ;Prelab Exp 4,5
TEXT 592 -1296 Left 2 ;Venkata Subhash M\n    ES23f3000773
TEXT -112 -672 Left 2 ;Prelab Exp 1
TEXT 864 -704 Left 2 ;Prelab Exp 2
TEXT 1384 -328 Left 2 ;Prelab Exp 3
TEXT -120 -256 Left 2 ;BPF and Adder
TEXT 224 -632 Left 2 ;Ramp generator (5.5 KHzs)
TEXT 2056 -1072 Left 2 ;PWM modulator
TEXT 840 -1072 Left 2 ;Single ended to differential converter
TEXT 2392 -336 Left 2 ;H- bridge Driver
TEXT 440 -1400 Left 5 ;Analog Electronics Lab
TEXT 616 -1344 Left 4 ;EE 2901
RECTANGLE Normal -1152 -416 -1152 -416 2
RECTANGLE Normal 960 800 -864 -304 1
RECTANGLE Normal 576 -528 -176 -1136 1
RECTANGLE Normal 2480 -528 784 -1136 1
RECTANGLE Normal 2704 384 1328 -400 1
