Version 4
SHEET 1 1168 680
WIRE 416 -224 384 -224
WIRE 592 -224 544 -224
WIRE 384 -192 384 -224
WIRE 384 -192 368 -192
WIRE 256 -176 208 -176
WIRE 896 -176 656 -176
WIRE 384 -160 368 -160
WIRE 1072 -144 944 -144
WIRE 384 -128 384 -160
WIRE 448 -128 384 -128
WIRE 592 -128 512 -128
WIRE 896 -16 896 -176
WIRE 944 -16 944 -144
WIRE 944 -16 896 -16
WIRE 1072 -16 1072 -64
WIRE 944 32 896 32
WIRE 1072 112 1072 64
WIRE 208 128 208 -176
WIRE 208 128 144 128
WIRE -48 144 -304 144
WIRE 208 160 144 160
WIRE -304 176 -304 144
WIRE 416 192 384 192
WIRE 528 192 480 192
WIRE 944 192 944 32
WIRE 1072 192 944 192
WIRE -560 224 -560 208
WIRE 384 224 384 192
WIRE 384 224 368 224
WIRE 208 240 208 160
WIRE 256 240 208 240
WIRE 896 240 896 32
WIRE 896 240 656 240
WIRE 384 256 368 256
WIRE 384 288 384 256
WIRE 448 288 384 288
WIRE 592 288 512 288
FLAG -304 256 0
FLAG -560 224 0
FLAG -560 128 Vcc
FLAG 656 -272 Vcc
FLAG 656 144 Vcc
FLAG 656 -80 0
FLAG 656 336 0
FLAG 384 -288 0
FLAG 384 -64 0
FLAG 384 128 0
FLAG 384 352 0
SYMBOL Exp2 48 144 M180
SYMATTR InstName X1
SYMBOL voltage -304 160 R0
WINDOW 123 24 124 Left 2
WINDOW 39 0 0 Left 0
SYMATTR Value2 AC 0.5
SYMATTR InstName V1
SYMATTR Value SINE(2.5 0.4 312.5)
SYMBOL SR_Latch 304 -176 M180
SYMATTR InstName X2
SYMBOL SR_Latch 304 240 M180
SYMATTR InstName X3
SYMBOL Digital\\inv 416 -288 R0
WINDOW 123 8 60 Left 2
SYMATTR Value2 VHigh=5
SYMATTR InstName A1
SYMBOL Digital\\inv 480 -288 R0
WINDOW 123 8 60 Left 2
SYMATTR Value2 VHigh=5
SYMATTR InstName A2
SYMBOL Digital\\inv 448 -192 R0
WINDOW 123 8 60 Left 2
SYMATTR Value2 VHigh=5
SYMATTR InstName A3
SYMBOL Digital\\inv 416 128 R0
WINDOW 123 8 60 Left 2
SYMATTR Value2 VHigh=5
SYMATTR InstName A4
SYMBOL Digital\\inv 528 128 R0
WINDOW 123 8 60 Left 2
SYMATTR Value2 VHigh=5
SYMATTR InstName A5
SYMBOL Digital\\inv 448 224 R0
WINDOW 123 8 60 Left 2
SYMATTR Value2 VHigh=5
SYMATTR InstName A6
SYMBOL pnp 592 -176 M180
SYMATTR InstName Q1
SYMATTR Value 2N2907
SYMBOL pnp 592 240 M180
SYMATTR InstName Q2
SYMATTR Value 2N2907
SYMBOL npn 592 -176 R0
SYMATTR InstName Q3
SYMATTR Value 2N2222
SYMBOL npn 592 240 R0
SYMATTR InstName Q4
SYMATTR Value 2N2222
SYMBOL voltage -560 112 R0
WINDOW 123 0 0 Left 0
WINDOW 39 0 0 Left 0
SYMATTR InstName V2
SYMATTR Value 5v
SYMBOL res 1056 -160 R0
SYMATTR InstName R1
SYMATTR Value 16
SYMBOL res 1056 96 R0
SYMATTR InstName R2
SYMATTR Value 16
SYMBOL ind 1056 -32 R0
SYMATTR InstName L1
SYMATTR Value 2m
SYMBOL cap 368 -288 R0
SYMATTR InstName C1
SYMATTR Value 10n
SYMBOL cap 368 -128 R0
SYMATTR InstName C2
SYMATTR Value 100n
SYMBOL cap 368 128 R0
SYMATTR InstName C3
SYMATTR Value 10n
SYMBOL cap 368 288 R0
SYMATTR InstName C4
SYMATTR Value 100n
TEXT -592 360 Left 2 !.tran 50m startup
TEXT -376 -328 Left 2 ;Prelab Exp3\nVenkata Subhash M\nES23f3000773
