Version 4
SHEET 1 1868 680
WIRE 384 -96 352 -96
WIRE 544 -96 464 -96
WIRE 1408 0 1360 0
WIRE 1408 32 1360 32
WIRE 1696 32 1408 32
WIRE 144 48 -16 48
WIRE 224 48 208 48
WIRE 240 48 224 48
WIRE 352 48 352 -96
WIRE 352 48 320 48
WIRE 384 48 352 48
WIRE -208 64 -208 32
WIRE -160 64 -208 64
WIRE 544 64 544 -96
WIRE 544 64 448 64
WIRE 560 64 544 64
WIRE -208 80 -208 64
WIRE -208 192 -208 160
WIRE -160 192 -208 192
WIRE -208 224 -208 192
WIRE 224 240 224 48
WIRE 560 240 224 240
WIRE 1408 240 1360 240
WIRE 1408 272 1360 272
WIRE 1696 272 1408 272
FLAG -208 -48 0
FLAG -208 304 0
FLAG -160 192 Vdd
FLAG -160 64 Vcom
FLAG 384 80 Vcom
FLAG 416 96 0
FLAG 416 32 Vdd
FLAG 560 64 Vin_a-
FLAG 560 240 Vin_a+
FLAG 1296 -16 Vin_a+
FLAG 1296 224 Vin_a-
FLAG 1056 112 Vramp
FLAG 1296 16 Vramp
FLAG 1296 256 Vramp
FLAG 1360 -32 Vdd
FLAG 1360 208 Vdd
FLAG 1408 0 0
FLAG 1408 240 0
FLAG 1408 112 Vdd
FLAG 1408 352 Vdd
FLAG 1696 32 V_pwm-p
IOPIN 1696 32 Out
FLAG 1696 272 V_pwm-n
IOPIN 1696 272 Out
FLAG -16 48 Ain
IOPIN -16 48 In
SYMBOL cap 208 32 R90
WINDOW 0 0 32 VBottom 2
WINDOW 3 32 32 VTop 2
SYMATTR InstName C1
SYMATTR Value 4.7µ
SYMBOL res 336 32 R90
WINDOW 0 0 56 VBottom 2
WINDOW 3 32 56 VTop 2
SYMATTR InstName R1
SYMATTR Value 100k
SYMBOL OpAmps\\AD8648 416 0 R0
WINDOW 3 -58 135 Left 2
SYMATTR InstName U1
SYMBOL voltage -208 208 R0
WINDOW 123 0 0 Left 0
WINDOW 39 0 0 Left 0
SYMATTR InstName V1
SYMATTR Value 5
SYMBOL res -224 64 R0
SYMATTR InstName R2
SYMATTR Value 1k
SYMBOL res -224 -64 R0
SYMATTR InstName R3
SYMATTR Value 1k
SYMBOL res 480 -112 R90
WINDOW 0 0 56 VBottom 2
WINDOW 3 32 56 VTop 2
SYMATTR InstName R4
SYMATTR Value 100k
SYMBOL LM339 1328 0 R0
SYMATTR InstName U2
SYMBOL LM339 1328 240 R0
SYMATTR InstName U3
SYMBOL Exp1 928 112 R0
SYMATTR InstName X1
SYMBOL res 1392 16 R0
SYMATTR InstName R5
SYMATTR Value 1k
SYMBOL res 1392 256 R0
SYMATTR InstName R6
SYMATTR Value 1k
TEXT -240 328 Left 2 !.tran 10m
TEXT -208 504 Left 2 ;Venkata Subhash M\n23f3000773
