Version 4
SHEET 1 1220 888
WIRE 256 -160 192 -160
WIRE 480 -160 320 -160
WIRE 352 -64 320 -64
WIRE 480 -64 480 -160
WIRE 480 -64 432 -64
WIRE -400 0 -496 0
WIRE 64 64 -32 64
WIRE 192 64 192 -160
WIRE 192 64 144 64
WIRE 224 64 192 64
WIRE 320 64 320 -64
WIRE 320 64 288 64
WIRE 368 64 320 64
WIRE -400 80 -496 80
WIRE 480 80 480 -64
WIRE 480 80 432 80
WIRE 560 80 480 80
WIRE 192 128 192 64
WIRE 992 160 960 160
WIRE 1120 160 1072 160
WIRE 800 256 752 256
WIRE 912 256 880 256
WIRE 912 288 912 256
WIRE 960 288 960 160
WIRE 960 288 912 288
WIRE 992 288 960 288
WIRE 1120 304 1120 160
WIRE 1120 304 1056 304
WIRE 1216 304 1120 304
WIRE -32 320 -32 64
WIRE -32 320 -48 320
WIRE 800 336 752 336
WIRE 912 336 912 288
WIRE 912 336 880 336
WIRE 256 352 192 352
WIRE 480 352 320 352
WIRE 352 448 320 448
WIRE 480 448 480 352
WIRE 480 448 432 448
WIRE -32 576 -32 320
WIRE 64 576 -32 576
WIRE 192 576 192 352
WIRE 192 576 144 576
WIRE 224 576 192 576
WIRE 320 576 320 448
WIRE 320 576 288 576
WIRE 368 576 320 576
WIRE 480 592 480 448
WIRE 480 592 432 592
WIRE 560 592 480 592
WIRE 192 640 192 576
FLAG 400 112 0
FLAG 192 208 0
FLAG -400 160 0
FLAG -400 -80 0
FLAG 400 624 0
FLAG 192 720 0
FLAG 560 80 Vout_BPF1
IOPIN 560 80 Out
FLAG 560 592 Vout_BPF2
IOPIN 560 592 Out
FLAG -48 320 Vin_audio
IOPIN -48 320 In
FLAG -496 0 Vcom
FLAG 368 96 Vcom
FLAG 368 608 Vcom
FLAG -496 80 Vdd
FLAG 400 560 Vdd
FLAG 400 48 Vdd
FLAG -528 416 0
FLAG -528 336 Vin_audio
IOPIN -528 336 Out
FLAG 752 256 Vout_BPF1
IOPIN 752 256 In
FLAG 752 336 Vout_BPF2
IOPIN 752 336 In
FLAG 1024 272 Vdd
FLAG 1024 336 0
FLAG 992 320 Vcom
SYMBOL res 160 48 R90
WINDOW 0 0 56 VBottom 2
WINDOW 3 32 56 VTop 2
SYMATTR InstName R1
SYMATTR Value {R1a}
SYMBOL res 176 112 R0
SYMATTR InstName R2
SYMATTR Value {R3a}
SYMBOL cap 224 48 M90
WINDOW 0 0 32 VBottom 2
WINDOW 3 32 32 VTop 2
SYMATTR InstName C1
SYMATTR Value {Ca}
SYMBOL cap 256 -176 M90
WINDOW 0 0 32 VBottom 2
WINDOW 3 32 32 VTop 2
SYMATTR InstName C2
SYMATTR Value {Ca}
SYMBOL res 448 -80 R90
WINDOW 0 0 56 VBottom 2
WINDOW 3 32 56 VTop 2
SYMATTR InstName R3
SYMATTR Value {R2a}
SYMBOL OpAmps\\UniversalOpAmp2 400 80 R0
SYMATTR InstName U1
SYMBOL voltage -400 64 R0
WINDOW 123 0 0 Left 0
WINDOW 39 0 0 Left 0
SYMATTR InstName V1
SYMATTR Value 5
SYMBOL res -416 -16 R0
SYMATTR InstName R4
SYMATTR Value 5k
SYMBOL res -416 -96 R0
SYMATTR InstName R5
SYMATTR Value 5k
SYMBOL res 160 560 R90
WINDOW 0 0 56 VBottom 2
WINDOW 3 32 56 VTop 2
SYMATTR InstName R6
SYMATTR Value {R1b}
SYMBOL res 176 624 R0
SYMATTR InstName R7
SYMATTR Value {R3b}
SYMBOL cap 224 560 M90
WINDOW 0 0 32 VBottom 2
WINDOW 3 32 32 VTop 2
SYMATTR InstName C3
SYMATTR Value {Cb}
SYMBOL cap 256 336 M90
WINDOW 0 0 32 VBottom 2
WINDOW 3 32 32 VTop 2
SYMATTR InstName C4
SYMATTR Value {Cb}
SYMBOL res 448 432 R90
WINDOW 0 0 56 VBottom 2
WINDOW 3 32 56 VTop 2
SYMATTR InstName R8
SYMATTR Value {R2b}
SYMBOL OpAmps\\UniversalOpAmp2 400 592 R0
SYMATTR InstName U2
SYMBOL voltage -528 320 R0
WINDOW 123 24 124 Left 2
WINDOW 39 0 0 Left 0
SYMATTR Value2 AC 1
SYMATTR InstName V2
SYMATTR Value SINE(2.5 1 312.5)
SYMBOL OpAmps\\UniversalOpAmp2 1024 304 R0
SYMATTR InstName U3
SYMBOL res 1088 144 R90
WINDOW 0 0 56 VBottom 2
WINDOW 3 32 56 VTop 2
SYMATTR InstName R9
SYMATTR Value {R}
SYMBOL res 896 240 R90
WINDOW 0 0 56 VBottom 2
WINDOW 3 32 56 VTop 2
SYMATTR InstName R10
SYMATTR Value {R}
SYMBOL res 896 320 R90
WINDOW 0 0 56 VBottom 2
WINDOW 3 32 56 VTop 2
SYMATTR InstName R11
SYMATTR Value {R}
TEXT -376 720 Left 2 !.ac dec 1000 20 1.25k
TEXT -376 776 Left 2 ;.tran 200ms
TEXT -368 872 Left 2 !.param R1a=99.7k R2a=199.5k R3a=458 Ca=103n R1b=25.66k R2b=52.5k R3b=130.3 Cb=103n R=1k
